# generated using pymatgen
data_NaTi2(PO4)3
_symmetry_space_group_name_H-M   'P 1'
_cell_length_a   8.86750966
_cell_length_b   8.86750966
_cell_length_c   8.86750966
_cell_angle_alpha   58.13793144
_cell_angle_beta   58.13793144
_cell_angle_gamma   58.13793144
_symmetry_Int_Tables_number   1
_chemical_formula_structural   NaTi2(PO4)3
_chemical_formula_sum   'Na2 Ti4 P6 O24'
_cell_volume   472.00470278
_cell_formula_units_Z   2
loop_
 _symmetry_equiv_pos_site_id
 _symmetry_equiv_pos_as_xyz
  1  'x, y, z'
loop_
 _atom_site_type_symbol
 _atom_site_label
 _atom_site_symmetry_multiplicity
 _atom_site_fract_x
 _atom_site_fract_y
 _atom_site_fract_z
 _atom_site_occupancy
  Na  Na0  1  0.500000  0.500000  0.500000  1
  Na  Na1  1  0.000000  0.000000  0.000000  1
  Ti  Ti2  1  0.855408  0.855408  0.855408  1
  Ti  Ti3  1  0.644592  0.644592  0.644592  1
  Ti  Ti4  1  0.355408  0.355408  0.355408  1
  Ti  Ti5  1  0.144592  0.144592  0.144592  1
  P  P6  1  0.962790  0.250000  0.537210  1
  P  P7  1  0.537210  0.962790  0.250000  1
  P  P8  1  0.037210  0.750000  0.462790  1
  P  P9  1  0.462790  0.037210  0.750000  1
  P  P10  1  0.250000  0.537210  0.962790  1
  P  P11  1  0.750000  0.462790  0.037210  1
  O  O12  1  0.922992  0.279951  0.060332  1
  O  O13  1  0.060332  0.922992  0.279951  1
  O  O14  1  0.279951  0.060332  0.922992  1
  O  O15  1  0.577008  0.439668  0.220049  1
  O  O16  1  0.220049  0.577008  0.439668  1
  O  O17  1  0.439668  0.220049  0.577008  1
  O  O18  1  0.077008  0.720049  0.939668  1
  O  O19  1  0.939668  0.077008  0.720049  1
  O  O20  1  0.720049  0.939668  0.077008  1
  O  O21  1  0.422992  0.560332  0.779951  1
  O  O22  1  0.779951  0.422992  0.560332  1
  O  O23  1  0.560332  0.779951  0.422992  1
  O  O24  1  0.497030  0.867642  0.713519  1
  O  O25  1  0.867642  0.713519  0.497030  1
  O  O26  1  0.713519  0.497030  0.867642  1
  O  O27  1  0.632358  0.002970  0.786481  1
  O  O28  1  0.002970  0.786481  0.632358  1
  O  O29  1  0.786481  0.632358  0.002970  1
  O  O30  1  0.502970  0.132358  0.286481  1
  O  O31  1  0.132358  0.286481  0.502970  1
  O  O32  1  0.286481  0.502970  0.132358  1
  O  O33  1  0.367642  0.997030  0.213519  1
  O  O34  1  0.997030  0.213519  0.367642  1
  O  O35  1  0.213519  0.367642  0.997030  1
