data_image0
_cell_length_a       7.22025
_cell_length_b       7.22025
_cell_length_c       7.22026
_cell_angle_alpha    60
_cell_angle_beta     60
_cell_angle_gamma    60

_symmetry_space_group_name_H-M    "P 1"
_symmetry_int_tables_number       1

loop_
  _symmetry_equiv_pos_as_xyz
  'x, y, z'

loop_
  _atom_site_label
  _atom_site_occupancy
  _atom_site_fract_x
  _atom_site_fract_y
  _atom_site_fract_z
  _atom_site_thermal_displace_type
  _atom_site_B_iso_or_equiv
  _atom_site_type_symbol
  Fe1      1.0000 0.00104  0.99792  0.99878  Biso   1.000  Fe
  Ni1      1.0000 0.50422  0.49204  0.49756  Biso   1.000  Ni
  C1       1.0000 0.81331  0.83023  0.17536  Biso   1.000  C
  N1       1.0000 0.66213  0.75652  0.28720  Biso   1.000  N
  N2       1.0000 0.34013  0.23892  0.71456  Biso   1.000  N
  N3       1.0000 0.65687  0.28771  0.77264  Biso   1.000  N
  N4       1.0000 0.33592  0.71533  0.23939  Biso   1.000  N
  N5       1.0000 0.34199  0.71317  0.71705  Biso   1.000  N
  N6       1.0000 0.66410  0.29249  0.28145  Biso   1.000  N
  C2       1.0000 0.18487  0.17128  0.82486  Biso   1.000  C
  C3       1.0000 0.81526  0.17636  0.83802  Biso   1.000  C
  C4       1.0000 0.18567  0.82943  0.16382  Biso   1.000  C
  C5       1.0000 0.18399  0.82439  0.83042  Biso   1.000  C
  C6       1.0000 0.81878  0.17718  0.17255  Biso   1.000  C
  K1       1.0000 0.28123  0.23317  0.23229  Biso   1.000  K
  K2       1.0000 0.68667  0.71964  0.78432  Biso   1.000  K
  O1       1.0000 0.02707  0.48525  0.48254  Biso   1.000  O
  O2       1.0000 0.93868  0.95587  0.55153  Biso   1.000  O
  O3       1.0000 0.87433  0.36489  0.36753  Biso   1.000  O
  O4       1.0000 0.14412  0.61421  0.61740  Biso   1.000  O
  H1       1.0000 0.04194  0.61931  0.46497  Biso   1.000  H
  H2       1.0000 0.02033  0.53011  0.33920  Biso   1.000  H
  H3       1.0000 0.02683  0.04599  0.53756  Biso   1.000  H
  H4       1.0000 0.93348  0.86931  0.70401  Biso   1.000  H
  H5       1.0000 0.85865  0.43590  0.46951  Biso   1.000  H
  H6       1.0000 0.80536  0.24873  0.49037  Biso   1.000  H
  H7       1.0000 0.21073  0.73866  0.55055  Biso   1.000  H
  H8       1.0000 0.11640  0.56002  0.77785  Biso   1.000  H
